_cell_length_a 20.436
_cell_length_b 9.005
_cell_length_c 16.672
_cell_angle_alpha 90.0
_cell_angle_beta 110.23
_cell_angle_gamma 90.0
_symmetry_space_group_name_H-M         'P 1'
_symmetry_Int_Tables_number            1
loop_
_symmetry_equiv_pos_as_xyz
   'x, y, z'
                         
loop_
_atom_site_label
_atom_site_type_symbol
_atom_site_fract_x 
_atom_site_fract_y
_atom_site_fract_z
_atom_site_charge
Zn1 Zn1 0.160814 0.305299 0.267514 0.0
Zn2 Zn2 0.0 0.2481513 0.25 0.0
O1 O1 0.05532 0.11116 0.33803 0.0
O4 O4 0.06473 0.36547 0.21924 0.0
O2 O2 0.15742 0.22756 0.38123 0.0
N1 N1 0.26513 0.04147 0.69613 0.0
N2 N2 0.19103 -0.12967 0.71653 0.0
C8 C8 0.19553 0.09398 0.54164 0.0
H8 H8 0.228 0.1609 0.5321 0.0
C10 C10 0.11473 0.13867 0.39324 0.0
C7 C7 0.13223 0.06147 0.47734 0.0
C5 C5 0.10044 -0.11428 0.56754 0.0
H5 H5 0.069 -0.1849 0.5764 0.0
C9 C9 0.20883 0.02497 0.61934 0.0
C3 C3 0.25054 -0.05219 0.75024 0.0
C4 C4 0.16303 -0.07887 0.63194 0.0
C6 C6 0.08613 -0.04198 0.49034 0.0
H6 H6 0.0438 -0.063 0.445 0.0
O3 O3 0.33695 0.04869 0.87124 0.0
H3A H3A 0.3121 0.1077 0.8872 0.0
C2 C2 0.29896 -0.081611 0.83916 0.0
H2 H2 0.2752 -0.1239 0.8773 0.0
C1 C1 0.36778 -0.178618 0.83881 0.0
H1A H1A 0.3985 -0.1962 0.8978 0.0
H1B H1B 0.393 -0.123 0.8082 0.0
H1C H1C 0.3523 -0.274 0.8102 0.0
O3W O3W 0.228813 0.1633 0.899615 0.0
H4 H4 0.0657 0.39715 0.1858 0.0
O2W O2W 0.085011 0.6202 0.346213 0.0
O1W O1W -0.03929 0.4672 0.04261 0.0
O4W O4W 0.0 0.8095 0.25 0.0
Zn1 Zn1 -0.160814 0.305299 0.23248600000000003 0.0
O1 O1 -0.05532 0.11116 0.16197 0.0
O4 O4 -0.06473 0.36547 0.28076 0.0
O2 O2 -0.15742 0.22756 0.11876999999999999 0.0
N1 N1 -0.26513 0.04147 -0.19613000000000003 0.0
N2 N2 -0.19103 -0.12967 -0.21653 0.0
C8 C8 -0.19553 0.09398 -0.04164000000000001 0.0
H8 H8 -0.228 0.1609 -0.03210000000000002 0.0
C10 C10 -0.11473 0.13867 0.10676000000000002 0.0
C7 C7 -0.13223 0.06147 0.022660000000000013 0.0
C5 C5 -0.10044 -0.11428 -0.06754000000000004 0.0
H5 H5 -0.069 -0.1849 -0.07640000000000002 0.0
C9 C9 -0.20883 0.02497 -0.11934 0.0
C3 C3 -0.25054 -0.05219 -0.25024 0.0
C4 C4 -0.16303 -0.07887 -0.13193999999999995 0.0
C6 C6 -0.08613 -0.04198 0.009660000000000002 0.0
H6 H6 -0.0438 -0.063 0.05499999999999999 0.0
O3 O3 -0.33695 0.04869 -0.37124 0.0
H3A H3A -0.3121 0.1077 -0.3872 0.0
C2 C2 -0.29896 -0.081611 -0.33916 0.0
H2 H2 -0.2752 -0.1239 -0.37729999999999997 0.0
C1 C1 -0.36778 -0.178618 -0.33880999999999994 0.0
H1A H1A -0.3985 -0.1962 -0.39780000000000004 0.0
H1B H1B -0.393 -0.123 -0.30820000000000003 0.0
H1C H1C -0.3523 -0.274 -0.31020000000000003 0.0
O3W O3W -0.228813 0.1633 -0.39961500000000005 0.0
H4 H4 -0.0657 0.39715 0.31420000000000003 0.0
O2W O2W -0.085011 0.6202 0.153787 0.0
O1W O1W 0.03929 0.4672 0.45739 0.0
Zn1 Zn1 0.660814 0.805299 0.267514 0.0
Zn2 Zn2 0.5 0.7481513 0.25 0.0
O1 O1 0.55532 0.61116 0.33803 0.0
O4 O4 0.56473 0.86547 0.21924 0.0
O2 O2 0.65742 0.72756 0.38123 0.0
N1 N1 0.76513 0.54147 0.69613 0.0
N2 N2 0.69103 0.37033 0.71653 0.0
C8 C8 0.69553 0.59398 0.54164 0.0
H8 H8 0.728 0.6609 0.5321 0.0
C10 C10 0.61473 0.63867 0.39324 0.0
C7 C7 0.63223 0.56147 0.47734 0.0
C5 C5 0.60044 0.38572 0.56754 0.0
H5 H5 0.569 0.3151 0.5764 0.0
C9 C9 0.70883 0.52497 0.61934 0.0
C3 C3 0.75054 0.44781 0.75024 0.0
C4 C4 0.66303 0.42113 0.63194 0.0
C6 C6 0.58613 0.45802 0.49034 0.0
H6 H6 0.5438 0.437 0.445 0.0
O3 O3 0.8369500000000001 0.54869 0.87124 0.0
H3A H3A 0.8121 0.6077 0.8872 0.0
C2 C2 0.79896 0.418389 0.83916 0.0
H2 H2 0.7752 0.3761 0.8773 0.0
C1 C1 0.86778 0.321382 0.83881 0.0
H1A H1A 0.8985000000000001 0.30379999999999996 0.8978 0.0
H1B H1B 0.893 0.377 0.8082 0.0
H1C H1C 0.8523000000000001 0.22599999999999998 0.8102 0.0
O3W O3W 0.7288129999999999 0.6633 0.899615 0.0
H4 H4 0.5657 0.89715 0.1858 0.0
O2W O2W 0.585011 1.1202 0.346213 0.0
O1W O1W 0.46071 0.9672000000000001 0.04261 0.0
O4W O4W 0.5 1.3094999999999999 0.25 0.0
Zn1 Zn1 0.339186 0.805299 0.23248600000000003 0.0
O1 O1 0.44468 0.61116 0.16197 0.0
O4 O4 0.43527 0.86547 0.28076 0.0
O2 O2 0.34258 0.72756 0.11876999999999999 0.0
N1 N1 0.23487000000000002 0.54147 -0.19613000000000003 0.0
N2 N2 0.30896999999999997 0.37033 -0.21653 0.0
C8 C8 0.30447 0.59398 -0.04164000000000001 0.0
H8 H8 0.272 0.6609 -0.03210000000000002 0.0
C10 C10 0.38527 0.63867 0.10676000000000002 0.0
C7 C7 0.36777000000000004 0.56147 0.022660000000000013 0.0
C5 C5 0.39956 0.38572 -0.06754000000000004 0.0
H5 H5 0.431 0.3151 -0.07640000000000002 0.0
C9 C9 0.29117000000000004 0.52497 -0.11934 0.0
C3 C3 0.24946000000000002 0.44781 -0.25024 0.0
C4 C4 0.33697 0.42113 -0.13193999999999995 0.0
C6 C6 0.41387 0.45802 0.009660000000000002 0.0
H6 H6 0.4562 0.437 0.05499999999999999 0.0
O3 O3 0.16304999999999997 0.54869 -0.37124 0.0
H3A H3A 0.1879 0.6077 -0.3872 0.0
C2 C2 0.20104 0.418389 -0.33916 0.0
H2 H2 0.2248 0.3761 -0.37729999999999997 0.0
C1 C1 0.13222 0.321382 -0.33880999999999994 0.0
H1A H1A 0.10149999999999998 0.30379999999999996 -0.39780000000000004 0.0
H1B H1B 0.10699999999999998 0.377 -0.30820000000000003 0.0
H1C H1C 0.1477 0.22599999999999998 -0.31020000000000003 0.0
O3W O3W 0.271187 0.6633 -0.39961500000000005 0.0
H4 H4 0.4343 0.89715 0.31420000000000003 0.0
O2W O2W 0.414989 1.1202 0.153787 0.0
O1W O1W 0.53929 0.9672000000000001 0.45739 0.0
Zn1 Zn1 -0.160814 -0.305299 -0.267514 0.0
Zn2 Zn2 -0.0 -0.2481513 -0.25 0.0
O1 O1 -0.05532 -0.11116 -0.33803 0.0
O4 O4 -0.06473 -0.36547 -0.21924 0.0
O2 O2 -0.15742 -0.22756 -0.38123 0.0
N1 N1 -0.26513 -0.04147 -0.69613 0.0
N2 N2 -0.19103 0.12967 -0.71653 0.0
C8 C8 -0.19553 -0.09398 -0.54164 0.0
H8 H8 -0.228 -0.1609 -0.5321 0.0
C10 C10 -0.11473 -0.13867 -0.39324 0.0
C7 C7 -0.13223 -0.06147 -0.47734 0.0
C5 C5 -0.10044 0.11428 -0.56754 0.0
H5 H5 -0.069 0.1849 -0.5764 0.0
C9 C9 -0.20883 -0.02497 -0.61934 0.0
C3 C3 -0.25054 0.05219 -0.75024 0.0
C4 C4 -0.16303 0.07887 -0.63194 0.0
C6 C6 -0.08613 0.04198 -0.49034 0.0
H6 H6 -0.0438 0.063 -0.445 0.0
O3 O3 -0.33695 -0.04869 -0.87124 0.0
H3A H3A -0.3121 -0.1077 -0.8872 0.0
C2 C2 -0.29896 0.081611 -0.83916 0.0
H2 H2 -0.2752 0.1239 -0.8773 0.0
C1 C1 -0.36778 0.178618 -0.83881 0.0
H1A H1A -0.3985 0.1962 -0.8978 0.0
H1B H1B -0.393 0.123 -0.8082 0.0
H1C H1C -0.3523 0.274 -0.8102 0.0
O3W O3W -0.228813 -0.1633 -0.899615 0.0
H4 H4 -0.0657 -0.39715 -0.1858 0.0
O2W O2W -0.085011 -0.6202 -0.346213 0.0
O1W O1W 0.03929 -0.4672 -0.04261 0.0
O4W O4W -0.0 -0.8095 -0.25 0.0
Zn1 Zn1 0.160814 -0.305299 -0.23248600000000003 0.0
O1 O1 0.05532 -0.11116 -0.16197 0.0
O4 O4 0.06473 -0.36547 -0.28076 0.0
O2 O2 0.15742 -0.22756 -0.11876999999999999 0.0
N1 N1 0.26513 -0.04147 0.19613000000000003 0.0
N2 N2 0.19103 0.12967 0.21653 0.0
C8 C8 0.19553 -0.09398 0.04164000000000001 0.0
H8 H8 0.228 -0.1609 0.03210000000000002 0.0
C10 C10 0.11473 -0.13867 -0.10676000000000002 0.0
C7 C7 0.13223 -0.06147 -0.022660000000000013 0.0
C5 C5 0.10044 0.11428 0.06754000000000004 0.0
H5 H5 0.069 0.1849 0.07640000000000002 0.0
C9 C9 0.20883 -0.02497 0.11934 0.0
C3 C3 0.25054 0.05219 0.25024 0.0
C4 C4 0.16303 0.07887 0.13193999999999995 0.0
C6 C6 0.08613 0.04198 -0.009660000000000002 0.0
H6 H6 0.0438 0.063 -0.05499999999999999 0.0
O3 O3 0.33695 -0.04869 0.37124 0.0
H3A H3A 0.3121 -0.1077 0.3872 0.0
C2 C2 0.29896 0.081611 0.33916 0.0
H2 H2 0.2752 0.1239 0.37729999999999997 0.0
C1 C1 0.36778 0.178618 0.33880999999999994 0.0
H1A H1A 0.3985 0.1962 0.39780000000000004 0.0
H1B H1B 0.393 0.123 0.30820000000000003 0.0
H1C H1C 0.3523 0.274 0.31020000000000003 0.0
O3W O3W 0.228813 -0.1633 0.39961500000000005 0.0
H4 H4 0.0657 -0.39715 -0.31420000000000003 0.0
O2W O2W 0.085011 -0.6202 -0.153787 0.0
O1W O1W -0.03929 -0.4672 -0.45739 0.0
Zn1 Zn1 0.339186 0.194701 -0.267514 0.0
Zn2 Zn2 0.5 0.25184870000000004 -0.25 0.0
O1 O1 0.44468 0.38884 -0.33803 0.0
O4 O4 0.43527 0.13452999999999998 -0.21924 0.0
O2 O2 0.34258 0.27244 -0.38123 0.0
N1 N1 0.23487000000000002 0.45853 -0.69613 0.0
N2 N2 0.30896999999999997 0.62967 -0.71653 0.0
C8 C8 0.30447 0.40602 -0.54164 0.0
H8 H8 0.272 0.3391 -0.5321 0.0
C10 C10 0.38527 0.36133000000000004 -0.39324 0.0
C7 C7 0.36777000000000004 0.43853 -0.47734 0.0
C5 C5 0.39956 0.61428 -0.56754 0.0
H5 H5 0.431 0.6849000000000001 -0.5764 0.0
C9 C9 0.29117000000000004 0.47503 -0.61934 0.0
C3 C3 0.24946000000000002 0.55219 -0.75024 0.0
C4 C4 0.33697 0.57887 -0.63194 0.0
C6 C6 0.41387 0.54198 -0.49034 0.0
H6 H6 0.4562 0.563 -0.445 0.0
O3 O3 0.16304999999999997 0.45131 -0.87124 0.0
H3A H3A 0.1879 0.3923 -0.8872 0.0
C2 C2 0.20104 0.581611 -0.83916 0.0
H2 H2 0.2248 0.6239 -0.8773 0.0
C1 C1 0.13222 0.6786179999999999 -0.83881 0.0
H1A H1A 0.10149999999999998 0.6962 -0.8978 0.0
H1B H1B 0.10699999999999998 0.623 -0.8082 0.0
H1C H1C 0.1477 0.774 -0.8102 0.0
O3W O3W 0.271187 0.3367 -0.899615 0.0
H4 H4 0.4343 0.10285 -0.1858 0.0
O2W O2W 0.414989 -0.12019999999999997 -0.346213 0.0
O1W O1W 0.53929 0.032799999999999996 -0.04261 0.0
O4W O4W 0.5 -0.3095 -0.25 0.0
Zn1 Zn1 0.660814 0.194701 -0.23248600000000003 0.0
O1 O1 0.55532 0.38884 -0.16197 0.0
O4 O4 0.56473 0.13452999999999998 -0.28076 0.0
O2 O2 0.65742 0.27244 -0.11876999999999999 0.0
N1 N1 0.76513 0.45853 0.19613000000000003 0.0
N2 N2 0.69103 0.62967 0.21653 0.0
C8 C8 0.69553 0.40602 0.04164000000000001 0.0
H8 H8 0.728 0.3391 0.03210000000000002 0.0
C10 C10 0.61473 0.36133000000000004 -0.10676000000000002 0.0
C7 C7 0.63223 0.43853 -0.022660000000000013 0.0
C5 C5 0.60044 0.61428 0.06754000000000004 0.0
H5 H5 0.569 0.6849000000000001 0.07640000000000002 0.0
C9 C9 0.70883 0.47503 0.11934 0.0
C3 C3 0.75054 0.55219 0.25024 0.0
C4 C4 0.66303 0.57887 0.13193999999999995 0.0
C6 C6 0.58613 0.54198 -0.009660000000000002 0.0
H6 H6 0.5438 0.563 -0.05499999999999999 0.0
O3 O3 0.8369500000000001 0.45131 0.37124 0.0
H3A H3A 0.8121 0.3923 0.3872 0.0
C2 C2 0.79896 0.581611 0.33916 0.0
H2 H2 0.7752 0.6239 0.37729999999999997 0.0
C1 C1 0.86778 0.6786179999999999 0.33880999999999994 0.0
H1A H1A 0.8985000000000001 0.6962 0.39780000000000004 0.0
H1B H1B 0.893 0.623 0.30820000000000003 0.0
H1C H1C 0.8523000000000001 0.774 0.31020000000000003 0.0
O3W O3W 0.7288129999999999 0.3367 0.39961500000000005 0.0
H4 H4 0.5657 0.10285 -0.31420000000000003 0.0
O2W O2W 0.585011 -0.12019999999999997 -0.153787 0.0
O1W O1W 0.46071 0.032799999999999996 -0.45739 0.0
