_cell_length_a 27.1013
_cell_length_b 9.27321
_cell_length_c 16.9792
_cell_angle_alpha 90.0
_cell_angle_beta 99.1565
_cell_angle_gamma 90.0
_symmetry_space_group_name_H-M         'P 1'
_symmetry_Int_Tables_number            1
loop_
_symmetry_equiv_pos_as_xyz
   'x, y, z'
                         
loop_
_atom_site_label
_atom_site_type_symbol
_atom_site_fract_x 
_atom_site_fract_y
_atom_site_fract_z
_atom_site_charge
Zn1 Zn1 -0.17 0.797 -0.34 0.0
Zn2 Zn2 -0.17 0.393 -0.54 0.0
O1 O1 -0.23 0.657 -0.3 0.0
O1W O1W -0.12 0.942 -0.38 0.0
H1WA H1WA -0.12 1.02 -0.36 0.0
H1WB H1WB -0.15 0.911 -0.39 0.0
O2 O2 -0.17 0.633 -0.42 0.0
O3 O3 -0.2 0.414 -0.45 0.0
O4 O4 -0.3 0.283 -0.4 0.0
O5 O5 -0.36 0.411 -0.46 0.0
O6 O6 -0.31 0.433 -0.25 0.0
O7 O7 -0.36 0.623 -0.22 0.0
O8 O8 -0.31 0.944 -0.37 0.0
O9 O9 -0.24 0.894 -0.39 0.0
N1 N1 -0.11 0.695 -0.26 0.0
N2 N2 0.1 0.438 -0.0 0.0
C1 C1 -0.24 0.532 -0.35 0.0
H1A H1A -0.23 0.444 -0.32 0.0
C2 C2 -0.29 0.542 -0.39 0.0
H2A H2A -0.29 0.599 -0.44 0.0
C3 C3 -0.32 0.636 -0.33 0.0
H3A H3A -0.34 0.688 -0.36 0.0
C4 C4 -0.27 0.74 -0.31 0.0
H4A H4A -0.28 0.773 -0.25 0.0
C5 C5 -0.2 0.529 -0.41 0.0
C6 C6 -0.32 0.401 -0.42 0.0
C7 C7 -0.33 0.556 -0.26 0.0
C8 C8 -0.27 0.871 -0.36 0.0
C9 C9 -0.1 0.556 -0.24 0.0
H9A H9A -0.13 0.493 -0.27 0.0
C10 C10 -0.06 0.5 -0.19 0.0
H10A H10A -0.06 0.401 -0.18 0.0
C11 C11 -0.02 0.59 -0.15 0.0
C12 C12 -0.03 0.736 -0.17 0.0
H12A H12A -0.01 0.802 -0.15 0.0
C13 C13 -0.07 0.783 -0.22 0.0
H13A H13A -0.07 0.881 -0.24 0.0
C14 C14 0.073 0.35 -0.05 0.0
H14A H14A 0.083 0.255 -0.06 0.0
C15 C15 0.031 0.394 -0.1 0.0
H15A H15A 0.013 0.33 -0.14 0.0
C16 C16 0.014 0.536 -0.1 0.0
C17 C17 0.041 0.626 -0.04 0.0
H17A H17A 0.031 0.721 -0.04 0.0
C18 C18 0.084 0.574 -0.0 0.0
H18A H18A 0.101 0.636 0.036 0.0
O2W O2W -0.03 0.131 -0.2 0.0
H2WA H2WA -0.06 0.097 -0.23 0.0
H2WB H2WB -0.01 0.073 -0.2 0.0
O3W O3W -0.04 0.05 -0.04 0.0
H3WA H3WA -0.05 -0.02 -0.04 0.0
H3WB H3WB -0.03 0.048 -0.09 0.0
_cell_length_a 27.1013
_cell_length_b 9.27321
_cell_length_c 16.9792
_cell_angle_alpha 90.0
_cell_angle_beta 99.1565
_cell_angle_gamma 90.0
_symmetry_space_group_name_H-M         'P 1'
_symmetry_Int_Tables_number            1
loop_
_symmetry_equiv_pos_as_xyz
   'x, y, z'
                         
loop_
_atom_site_label
_atom_site_type_symbol
_atom_site_fract_x 
_atom_site_fract_y
_atom_site_fract_z
_atom_site_charge
Zn1 Zn1 -0.17 0.797 -0.34 0.0
Zn2 Zn2 -0.17 0.393 -0.54 0.0
O1 O1 -0.23 0.657 -0.3 0.0
O1W O1W -0.12 0.942 -0.38 0.0
H1WA H1WA -0.12 1.02 -0.36 0.0
H1WB H1WB -0.15 0.911 -0.39 0.0
O2 O2 -0.17 0.633 -0.42 0.0
O3 O3 -0.2 0.414 -0.45 0.0
O4 O4 -0.3 0.283 -0.4 0.0
O5 O5 -0.36 0.411 -0.46 0.0
O6 O6 -0.31 0.433 -0.25 0.0
O7 O7 -0.36 0.623 -0.22 0.0
O8 O8 -0.31 0.944 -0.37 0.0
O9 O9 -0.24 0.894 -0.39 0.0
N1 N1 -0.11 0.695 -0.26 0.0
N2 N2 0.1 0.438 -0.0 0.0
C1 C1 -0.24 0.532 -0.35 0.0
H1A H1A -0.23 0.444 -0.32 0.0
C2 C2 -0.29 0.542 -0.39 0.0
H2A H2A -0.29 0.599 -0.44 0.0
C3 C3 -0.32 0.636 -0.33 0.0
H3A H3A -0.34 0.688 -0.36 0.0
C4 C4 -0.27 0.74 -0.31 0.0
H4A H4A -0.28 0.773 -0.25 0.0
C5 C5 -0.2 0.529 -0.41 0.0
C6 C6 -0.32 0.401 -0.42 0.0
C7 C7 -0.33 0.556 -0.26 0.0
C8 C8 -0.27 0.871 -0.36 0.0
C9 C9 -0.1 0.556 -0.24 0.0
H9A H9A -0.13 0.493 -0.27 0.0
C10 C10 -0.06 0.5 -0.19 0.0
H10A H10A -0.06 0.401 -0.18 0.0
C11 C11 -0.02 0.59 -0.15 0.0
C12 C12 -0.03 0.736 -0.17 0.0
H12A H12A -0.01 0.802 -0.15 0.0
C13 C13 -0.07 0.783 -0.22 0.0
H13A H13A -0.07 0.881 -0.24 0.0
C14 C14 0.073 0.35 -0.05 0.0
H14A H14A 0.083 0.255 -0.06 0.0
C15 C15 0.031 0.394 -0.1 0.0
H15A H15A 0.013 0.33 -0.14 0.0
C16 C16 0.014 0.536 -0.1 0.0
C17 C17 0.041 0.626 -0.04 0.0
H17A H17A 0.031 0.721 -0.04 0.0
C18 C18 0.084 0.574 -0.0 0.0
H18A H18A 0.101 0.636 0.036 0.0
O2W O2W -0.03 0.131 -0.2 0.0
H2WA H2WA -0.06 0.097 -0.23 0.0
H2WB H2WB -0.01 0.073 -0.2 0.0
O3W O3W -0.04 0.05 -0.04 0.0
H3WA H3WA -0.05 -0.02 -0.04 0.0
H3WB H3WB -0.03 0.048 -0.09 0.0
_cell_length_a 27.1013
_cell_length_b 9.27321
_cell_length_c 16.9792
_cell_angle_alpha 90.0
_cell_angle_beta 99.1565
_cell_angle_gamma 90.0
_symmetry_space_group_name_H-M         'P 1'
_symmetry_Int_Tables_number            1
loop_
_symmetry_equiv_pos_as_xyz
   'x, y, z'
                         
loop_
_atom_site_label
_atom_site_type_symbol
_atom_site_fract_x 
_atom_site_fract_y
_atom_site_fract_z
_atom_site_charge
Zn1 Zn1 -0.17 0.797 -0.34 0.0
Zn2 Zn2 -0.17 0.393 -0.54 0.0
O1 O1 -0.23 0.657 -0.3 0.0
O2 O2 -0.17 0.633 -0.42 0.0
O3 O3 -0.2 0.414 -0.45 0.0
O4 O4 -0.3 0.283 -0.4 0.0
O5 O5 -0.36 0.411 -0.46 0.0
O6 O6 -0.31 0.433 -0.25 0.0
O7 O7 -0.36 0.623 -0.22 0.0
O8 O8 -0.31 0.944 -0.37 0.0
O9 O9 -0.24 0.894 -0.39 0.0
N1 N1 -0.11 0.695 -0.26 0.0
N2 N2 0.1 0.438 -0.0 0.0
C1 C1 -0.24 0.532 -0.35 0.0
H1A H1A -0.23 0.444 -0.32 0.0
C2 C2 -0.29 0.542 -0.39 0.0
H2A H2A -0.29 0.599 -0.44 0.0
C3 C3 -0.32 0.636 -0.33 0.0
H3A H3A -0.34 0.688 -0.36 0.0
C4 C4 -0.27 0.74 -0.31 0.0
H4A H4A -0.28 0.773 -0.25 0.0
C5 C5 -0.2 0.529 -0.41 0.0
C6 C6 -0.32 0.401 -0.42 0.0
C7 C7 -0.33 0.556 -0.26 0.0
C8 C8 -0.27 0.871 -0.36 0.0
C9 C9 -0.1 0.556 -0.24 0.0
H9A H9A -0.13 0.493 -0.27 0.0
C10 C10 -0.06 0.5 -0.19 0.0
H10A H10A -0.06 0.401 -0.18 0.0
C11 C11 -0.02 0.59 -0.15 0.0
C12 C12 -0.03 0.736 -0.17 0.0
H12A H12A -0.01 0.802 -0.15 0.0
C13 C13 -0.07 0.783 -0.22 0.0
H13A H13A -0.07 0.881 -0.24 0.0
C14 C14 0.073 0.35 -0.05 0.0
H14A H14A 0.083 0.255 -0.06 0.0
C15 C15 0.031 0.394 -0.1 0.0
H15A H15A 0.013 0.33 -0.14 0.0
C16 C16 0.014 0.536 -0.1 0.0
C17 C17 0.041 0.626 -0.04 0.0
H17A H17A 0.031 0.721 -0.04 0.0
C18 C18 0.084 0.574 -0.0 0.0
H18A H18A 0.101 0.636 0.036 0.0
