_cell_length_a 19.62264
_cell_length_b 19.62264
_cell_length_c 14.20866
_cell_angle_alpha 90.0
_cell_angle_beta 90.0
_cell_angle_gamma 90.0
_symmetry_space_group_name_H-M         'P 1'
_symmetry_Int_Tables_number            1
loop_
_symmetry_equiv_pos_as_xyz
   'x, y, z'
                         
loop_
_atom_site_label
_atom_site_type_symbol
_atom_site_fract_x 
_atom_site_fract_y
_atom_site_fract_z
_atom_site_charge
Q1 Q1 -0.2677661 0.2322341 0.0 0.0
W1 W1 -0.797463 0.202543 -0.25 0.0
O1 O1 -0.3411613 0.2299114 -0.12622 0.0
O2 O2 -0.3971713 0.2208616 0.00633 0.0
O3 O3 -0.6555015 0.2686417 -0.03592 0.0
O4 O4 -0.7028814 0.2212819 -0.16032 0.0
O5 O5 -0.50462 0.17532 -0.37972 0.0
H5 H5 -0.5362 0.1906 -0.411 0.0
C1 C1 -0.3967019 0.22242 -0.08182 0.0
C2 C2 -0.6518919 0.23852 -0.11493 0.0
C3 C3 -0.4607518 0.21672 -0.13793 0.0
C4 C4 -0.45542 0.19742 -0.23263 0.0
H4 H4 -0.4129 0.1877 -0.2583 0.0
C5 C5 -0.51332 0.19272 -0.28783 0.0
C6 C6 -0.5767819 0.20602 -0.24933 0.0
H6 H6 -0.6157 0.2019 -0.2862 0.0
C7 C7 -0.5823719 0.22562 -0.15513 0.0
C8 C8 -0.52412 0.23032 -0.09923 0.0
H8 H8 -0.5278 0.2425 -0.0361 0.0
Q1 Q1 0.2677661 -0.2322341 0.0 0.0
W1 W1 0.797463 -0.202543 -0.25 0.0
O1 O1 0.3411613 -0.2299114 -0.12622 0.0
O2 O2 0.3971713 -0.2208616 0.00633 0.0
O3 O3 0.6555015 -0.2686417 -0.03592 0.0
O4 O4 0.7028814 -0.2212819 -0.16032 0.0
O5 O5 0.50462 -0.17532 -0.37972 0.0
H5 H5 0.5362 -0.1906 -0.411 0.0
C1 C1 0.3967019 -0.22242 -0.08182 0.0
C2 C2 0.6518919 -0.23852 -0.11493 0.0
C3 C3 0.4607518 -0.21672 -0.13793 0.0
C4 C4 0.45542 -0.19742 -0.23263 0.0
H4 H4 0.4129 -0.1877 -0.2583 0.0
C5 C5 0.51332 -0.19272 -0.28783 0.0
C6 C6 0.5767819 -0.20602 -0.24933 0.0
H6 H6 0.6157 -0.2019 -0.2862 0.0
C7 C7 0.5823719 -0.22562 -0.15513 0.0
C8 C8 0.52412 -0.23032 -0.09923 0.0
H8 H8 0.5278 -0.2425 -0.0361 0.0
Q1 Q1 0.2322341 0.2677661 -0.0 0.0
W1 W1 0.202543 0.797463 0.25 0.0
O1 O1 0.2299114 0.3411613 0.12622 0.0
O2 O2 0.2208616 0.3971713 -0.00633 0.0
O3 O3 0.2686417 0.6555015 0.03592 0.0
O4 O4 0.2212819 0.7028814 0.16032 0.0
O5 O5 0.17532 0.50462 0.37972 0.0
H5 H5 0.1906 0.5362 0.411 0.0
C1 C1 0.22242 0.3967019 0.08182 0.0
C2 C2 0.23852 0.6518919 0.11493 0.0
C3 C3 0.21672 0.4607518 0.13793 0.0
C4 C4 0.19742 0.45542 0.23263 0.0
H4 H4 0.1877 0.4129 0.2583 0.0
C5 C5 0.19272 0.51332 0.28783 0.0
C6 C6 0.20602 0.5767819 0.24933 0.0
H6 H6 0.2019 0.6157 0.2862 0.0
C7 C7 0.22562 0.5823719 0.15513 0.0
C8 C8 0.23032 0.52412 0.09923 0.0
H8 H8 0.2425 0.5278 0.0361 0.0
Q1 Q1 -0.2322341 -0.2677661 -0.0 0.0
W1 W1 -0.202543 -0.797463 0.25 0.0
O1 O1 -0.2299114 -0.3411613 0.12622 0.0
O2 O2 -0.2208616 -0.3971713 -0.00633 0.0
O3 O3 -0.2686417 -0.6555015 0.03592 0.0
O4 O4 -0.2212819 -0.7028814 0.16032 0.0
O5 O5 -0.17532 -0.50462 0.37972 0.0
H5 H5 -0.1906 -0.5362 0.411 0.0
C1 C1 -0.22242 -0.3967019 0.08182 0.0
C2 C2 -0.23852 -0.6518919 0.11493 0.0
C3 C3 -0.21672 -0.4607518 0.13793 0.0
C4 C4 -0.19742 -0.45542 0.23263 0.0
H4 H4 -0.1877 -0.4129 0.2583 0.0
C5 C5 -0.19272 -0.51332 0.28783 0.0
C6 C6 -0.20602 -0.5767819 0.24933 0.0
H6 H6 -0.2019 -0.6157 0.2862 0.0
C7 C7 -0.22562 -0.5823719 0.15513 0.0
C8 C8 -0.23032 -0.52412 0.09923 0.0
H8 H8 -0.2425 -0.5278 0.0361 0.0
Q1 Q1 -0.2677661 -0.2322341 0.5 0.0
W1 W1 -0.797463 -0.202543 0.25 0.0
O1 O1 -0.3411613 -0.2299114 0.37378 0.0
O2 O2 -0.3971713 -0.2208616 0.50633 0.0
O3 O3 -0.6555015 -0.2686417 0.46408 0.0
O4 O4 -0.7028814 -0.2212819 0.33968 0.0
O5 O5 -0.50462 -0.17532 0.12028 0.0
H5 H5 -0.5362 -0.1906 0.08900000000000002 0.0
C1 C1 -0.3967019 -0.22242 0.41818 0.0
C2 C2 -0.6518919 -0.23852 0.38507 0.0
C3 C3 -0.4607518 -0.21672 0.36207 0.0
C4 C4 -0.45542 -0.19742 0.26737 0.0
H4 H4 -0.4129 -0.1877 0.24170000000000003 0.0
C5 C5 -0.51332 -0.19272 0.21217000000000003 0.0
C6 C6 -0.5767819 -0.20602 0.25067 0.0
H6 H6 -0.6157 -0.2019 0.2138 0.0
C7 C7 -0.5823719 -0.22562 0.34487 0.0
C8 C8 -0.52412 -0.23032 0.40077 0.0
H8 H8 -0.5278 -0.2425 0.4639 0.0
Q1 Q1 0.2677661 0.2322341 0.5 0.0
W1 W1 0.797463 0.202543 0.25 0.0
O1 O1 0.3411613 0.2299114 0.37378 0.0
O2 O2 0.3971713 0.2208616 0.50633 0.0
O3 O3 0.6555015 0.2686417 0.46408 0.0
O4 O4 0.7028814 0.2212819 0.33968 0.0
O5 O5 0.50462 0.17532 0.12028 0.0
H5 H5 0.5362 0.1906 0.08900000000000002 0.0
C1 C1 0.3967019 0.22242 0.41818 0.0
C2 C2 0.6518919 0.23852 0.38507 0.0
C3 C3 0.4607518 0.21672 0.36207 0.0
C4 C4 0.45542 0.19742 0.26737 0.0
H4 H4 0.4129 0.1877 0.24170000000000003 0.0
C5 C5 0.51332 0.19272 0.21217000000000003 0.0
C6 C6 0.5767819 0.20602 0.25067 0.0
H6 H6 0.6157 0.2019 0.2138 0.0
C7 C7 0.5823719 0.22562 0.34487 0.0
C8 C8 0.52412 0.23032 0.40077 0.0
H8 H8 0.5278 0.2425 0.4639 0.0
Q1 Q1 0.2322341 -0.2677661 0.5 0.0
W1 W1 0.202543 -0.797463 0.75 0.0
O1 O1 0.2299114 -0.3411613 0.62622 0.0
O2 O2 0.2208616 -0.3971713 0.49367 0.0
O3 O3 0.2686417 -0.6555015 0.53592 0.0
O4 O4 0.2212819 -0.7028814 0.66032 0.0
O5 O5 0.17532 -0.50462 0.8797200000000001 0.0
H5 H5 0.1906 -0.5362 0.911 0.0
C1 C1 0.22242 -0.3967019 0.58182 0.0
C2 C2 0.23852 -0.6518919 0.61493 0.0
C3 C3 0.21672 -0.4607518 0.63793 0.0
C4 C4 0.19742 -0.45542 0.73263 0.0
H4 H4 0.1877 -0.4129 0.7583 0.0
C5 C5 0.19272 -0.51332 0.78783 0.0
C6 C6 0.20602 -0.5767819 0.74933 0.0
H6 H6 0.2019 -0.6157 0.7862 0.0
C7 C7 0.22562 -0.5823719 0.65513 0.0
C8 C8 0.23032 -0.52412 0.59923 0.0
H8 H8 0.2425 -0.5278 0.5361 0.0
Q1 Q1 -0.2322341 0.2677661 0.5 0.0
W1 W1 -0.202543 0.797463 0.75 0.0
O1 O1 -0.2299114 0.3411613 0.62622 0.0
O2 O2 -0.2208616 0.3971713 0.49367 0.0
O3 O3 -0.2686417 0.6555015 0.53592 0.0
O4 O4 -0.2212819 0.7028814 0.66032 0.0
O5 O5 -0.17532 0.50462 0.8797200000000001 0.0
H5 H5 -0.1906 0.5362 0.911 0.0
C1 C1 -0.22242 0.3967019 0.58182 0.0
C2 C2 -0.23852 0.6518919 0.61493 0.0
C3 C3 -0.21672 0.4607518 0.63793 0.0
C4 C4 -0.19742 0.45542 0.73263 0.0
H4 H4 -0.1877 0.4129 0.7583 0.0
C5 C5 -0.19272 0.51332 0.78783 0.0
C6 C6 -0.20602 0.5767819 0.74933 0.0
H6 H6 -0.2019 0.6157 0.7862 0.0
C7 C7 -0.22562 0.5823719 0.65513 0.0
C8 C8 -0.23032 0.52412 0.59923 0.0
H8 H8 -0.2425 0.5278 0.5361 0.0
Q1 Q1 0.2322339 0.7322341 0.5 0.0
W1 W1 -0.29746300000000003 0.702543 0.25 0.0
O1 O1 0.1588387 0.7299114 0.37378 0.0
O2 O2 0.1028287 0.7208616 0.50633 0.0
O3 O3 -0.15550149999999996 0.7686417 0.46408 0.0
O4 O4 -0.2028814 0.7212819 0.33968 0.0
O5 O5 -0.0046199999999999575 0.67532 0.12028 0.0
H5 H5 -0.03620000000000001 0.6906 0.08900000000000002 0.0
C1 C1 0.1032981 0.7224200000000001 0.41818 0.0
C2 C2 -0.15189189999999997 0.7385200000000001 0.38507 0.0
C3 C3 0.03924820000000001 0.71672 0.36207 0.0
C4 C4 0.04458000000000001 0.69742 0.26737 0.0
H4 H4 0.08710000000000001 0.6877 0.24170000000000003 0.0
C5 C5 -0.013319999999999999 0.69272 0.21217000000000003 0.0
C6 C6 -0.07678189999999996 0.70602 0.25067 0.0
H6 H6 -0.11570000000000003 0.7019 0.2138 0.0
C7 C7 -0.08237190000000005 0.7256199999999999 0.34487 0.0
C8 C8 -0.02412000000000003 0.73032 0.40077 0.0
H8 H8 -0.027800000000000047 0.7424999999999999 0.4639 0.0
Q1 Q1 0.7677661 0.2677659 0.5 0.0
W1 W1 1.297463 0.29745699999999997 0.25 0.0
O1 O1 0.8411613 0.2700886 0.37378 0.0
O2 O2 0.8971713 0.2791384 0.50633 0.0
O3 O3 1.1555015 0.23135830000000002 0.46408 0.0
O4 O4 1.2028813999999999 0.27871809999999997 0.33968 0.0
O5 O5 1.00462 0.32467999999999997 0.12028 0.0
H5 H5 1.0362 0.3094 0.08900000000000002 0.0
C1 C1 0.8967019 0.27758 0.41818 0.0
C2 C2 1.1518918999999999 0.26148 0.38507 0.0
C3 C3 0.9607517999999999 0.28328 0.36207 0.0
C4 C4 0.9554199999999999 0.30257999999999996 0.26737 0.0
H4 H4 0.9129 0.3123 0.24170000000000003 0.0
C5 C5 1.01332 0.30728 0.21217000000000003 0.0
C6 C6 1.0767818999999998 0.29398 0.25067 0.0
H6 H6 1.1157 0.29810000000000003 0.2138 0.0
C7 C7 1.0823719 0.27438 0.34487 0.0
C8 C8 1.02412 0.26968000000000003 0.40077 0.0
H8 H8 1.0278 0.2575 0.4639 0.0
Q1 Q1 0.7322341 0.7677661 0.5 0.0
W1 W1 0.702543 1.297463 0.75 0.0
O1 O1 0.7299114 0.8411613 0.62622 0.0
O2 O2 0.7208616 0.8971713 0.49367 0.0
O3 O3 0.7686417 1.1555015 0.53592 0.0
O4 O4 0.7212819 1.2028813999999999 0.66032 0.0
O5 O5 0.67532 1.00462 0.8797200000000001 0.0
H5 H5 0.6906 1.0362 0.911 0.0
C1 C1 0.7224200000000001 0.8967019 0.58182 0.0
C2 C2 0.7385200000000001 1.1518918999999999 0.61493 0.0
C3 C3 0.71672 0.9607517999999999 0.63793 0.0
C4 C4 0.69742 0.9554199999999999 0.73263 0.0
H4 H4 0.6877 0.9129 0.7583 0.0
C5 C5 0.69272 1.01332 0.78783 0.0
C6 C6 0.70602 1.0767818999999998 0.74933 0.0
H6 H6 0.7019 1.1157 0.7862 0.0
C7 C7 0.7256199999999999 1.0823719 0.65513 0.0
C8 C8 0.73032 1.02412 0.59923 0.0
H8 H8 0.7424999999999999 1.0278 0.5361 0.0
Q1 Q1 0.2677659 0.2322339 0.5 0.0
W1 W1 0.29745699999999997 -0.29746300000000003 0.75 0.0
O1 O1 0.2700886 0.1588387 0.62622 0.0
O2 O2 0.2791384 0.1028287 0.49367 0.0
O3 O3 0.23135830000000002 -0.15550149999999996 0.53592 0.0
O4 O4 0.27871809999999997 -0.2028814 0.66032 0.0
O5 O5 0.32467999999999997 -0.0046199999999999575 0.8797200000000001 0.0
H5 H5 0.3094 -0.03620000000000001 0.911 0.0
C1 C1 0.27758 0.1032981 0.58182 0.0
C2 C2 0.26148 -0.15189189999999997 0.61493 0.0
C3 C3 0.28328 0.03924820000000001 0.63793 0.0
C4 C4 0.30257999999999996 0.04458000000000001 0.73263 0.0
H4 H4 0.3123 0.08710000000000001 0.7583 0.0
C5 C5 0.30728 -0.013319999999999999 0.78783 0.0
C6 C6 0.29398 -0.07678189999999996 0.74933 0.0
H6 H6 0.29810000000000003 -0.11570000000000003 0.7862 0.0
C7 C7 0.27438 -0.08237190000000005 0.65513 0.0
C8 C8 0.26968000000000003 -0.02412000000000003 0.59923 0.0
H8 H8 0.2575 -0.027800000000000047 0.5361 0.0
Q1 Q1 0.2322339 0.2677659 1.0 0.0
W1 W1 -0.29746300000000003 0.29745699999999997 0.75 0.0
O1 O1 0.1588387 0.2700886 0.87378 0.0
O2 O2 0.1028287 0.2791384 1.00633 0.0
O3 O3 -0.15550149999999996 0.23135830000000002 0.96408 0.0
O4 O4 -0.2028814 0.27871809999999997 0.83968 0.0
O5 O5 -0.0046199999999999575 0.32467999999999997 0.6202799999999999 0.0
H5 H5 -0.03620000000000001 0.3094 0.589 0.0
C1 C1 0.1032981 0.27758 0.91818 0.0
C2 C2 -0.15189189999999997 0.26148 0.88507 0.0
C3 C3 0.03924820000000001 0.28328 0.86207 0.0
C4 C4 0.04458000000000001 0.30257999999999996 0.76737 0.0
H4 H4 0.08710000000000001 0.3123 0.7417 0.0
C5 C5 -0.013319999999999999 0.30728 0.71217 0.0
C6 C6 -0.07678189999999996 0.29398 0.75067 0.0
H6 H6 -0.11570000000000003 0.29810000000000003 0.7138 0.0
C7 C7 -0.08237190000000005 0.27438 0.84487 0.0
C8 C8 -0.02412000000000003 0.26968000000000003 0.90077 0.0
H8 H8 -0.027800000000000047 0.2575 0.9639 0.0
Q1 Q1 0.7677661 0.7322341 1.0 0.0
W1 W1 1.297463 0.702543 0.75 0.0
O1 O1 0.8411613 0.7299114 0.87378 0.0
O2 O2 0.8971713 0.7208616 1.00633 0.0
O3 O3 1.1555015 0.7686417 0.96408 0.0
O4 O4 1.2028813999999999 0.7212819 0.83968 0.0
O5 O5 1.00462 0.67532 0.6202799999999999 0.0
H5 H5 1.0362 0.6906 0.589 0.0
C1 C1 0.8967019 0.7224200000000001 0.91818 0.0
C2 C2 1.1518918999999999 0.7385200000000001 0.88507 0.0
C3 C3 0.9607517999999999 0.71672 0.86207 0.0
C4 C4 0.9554199999999999 0.69742 0.76737 0.0
H4 H4 0.9129 0.6877 0.7417 0.0
C5 C5 1.01332 0.69272 0.71217 0.0
C6 C6 1.0767818999999998 0.70602 0.75067 0.0
H6 H6 1.1157 0.7019 0.7138 0.0
C7 C7 1.0823719 0.7256199999999999 0.84487 0.0
C8 C8 1.02412 0.73032 0.90077 0.0
H8 H8 1.0278 0.7424999999999999 0.9639 0.0
Q1 Q1 0.7322341 0.2322339 1.0 0.0
W1 W1 0.702543 -0.29746300000000003 1.25 0.0
O1 O1 0.7299114 0.1588387 1.12622 0.0
O2 O2 0.7208616 0.1028287 0.99367 0.0
O3 O3 0.7686417 -0.15550149999999996 1.03592 0.0
O4 O4 0.7212819 -0.2028814 1.16032 0.0
O5 O5 0.67532 -0.0046199999999999575 1.37972 0.0
H5 H5 0.6906 -0.03620000000000001 1.411 0.0
C1 C1 0.7224200000000001 0.1032981 1.08182 0.0
C2 C2 0.7385200000000001 -0.15189189999999997 1.11493 0.0
C3 C3 0.71672 0.03924820000000001 1.1379299999999999 0.0
C4 C4 0.69742 0.04458000000000001 1.23263 0.0
H4 H4 0.6877 0.08710000000000001 1.2583 0.0
C5 C5 0.69272 -0.013319999999999999 1.28783 0.0
C6 C6 0.70602 -0.07678189999999996 1.24933 0.0
H6 H6 0.7019 -0.11570000000000003 1.2862 0.0
C7 C7 0.7256199999999999 -0.08237190000000005 1.15513 0.0
C8 C8 0.73032 -0.02412000000000003 1.09923 0.0
H8 H8 0.7424999999999999 -0.027800000000000047 1.0361 0.0
Q1 Q1 0.2677659 0.7677661 1.0 0.0
W1 W1 0.29745699999999997 1.297463 1.25 0.0
O1 O1 0.2700886 0.8411613 1.12622 0.0
O2 O2 0.2791384 0.8971713 0.99367 0.0
O3 O3 0.23135830000000002 1.1555015 1.03592 0.0
O4 O4 0.27871809999999997 1.2028813999999999 1.16032 0.0
O5 O5 0.32467999999999997 1.00462 1.37972 0.0
H5 H5 0.3094 1.0362 1.411 0.0
C1 C1 0.27758 0.8967019 1.08182 0.0
C2 C2 0.26148 1.1518918999999999 1.11493 0.0
C3 C3 0.28328 0.9607517999999999 1.1379299999999999 0.0
C4 C4 0.30257999999999996 0.9554199999999999 1.23263 0.0
H4 H4 0.3123 0.9129 1.2583 0.0
C5 C5 0.30728 1.01332 1.28783 0.0
C6 C6 0.29398 1.0767818999999998 1.24933 0.0
H6 H6 0.29810000000000003 1.1157 1.2862 0.0
C7 C7 0.27438 1.0823719 1.15513 0.0
C8 C8 0.26968000000000003 1.02412 1.09923 0.0
H8 H8 0.2575 1.0278 1.0361 0.0
